Version 4
SHEET 1 1092 680
WIRE -944 -160 -1216 -160
WIRE 640 -160 368 -160
WIRE -304 -128 -464 -128
WIRE -944 -96 -944 -160
WIRE -944 -96 -1072 -96
WIRE 640 -96 640 -160
WIRE 640 -96 512 -96
WIRE -1216 -64 -1216 -160
WIRE 368 -64 368 -160
WIRE -464 -48 -464 -128
WIRE -400 -48 -464 -48
WIRE -1072 -32 -1072 -96
WIRE -1040 -32 -1072 -32
WIRE -304 -32 -304 -128
WIRE -304 -32 -336 -32
WIRE -32 -32 -304 -32
WIRE 512 -32 512 -96
WIRE 544 -32 512 -32
WIRE -944 -16 -944 -96
WIRE -944 -16 -976 -16
WIRE -400 -16 -944 -16
WIRE 640 -16 640 -96
WIRE 640 -16 608 -16
WIRE 1024 -16 640 -16
WIRE -1312 0 -1616 0
WIRE -1216 0 -1232 0
WIRE -1184 0 -1216 0
WIRE -1040 0 -1104 0
WIRE -32 0 -32 -32
WIRE 272 0 -32 0
WIRE 368 0 352 0
WIRE 400 0 368 0
WIRE 544 0 480 0
WIRE -1616 112 -1616 0
WIRE -1104 144 -1104 64
WIRE 480 144 480 64
FLAG 480 144 0
FLAG 1024 -16 out
FLAG 576 16 V-
FLAG 576 -48 V+
FLAG 928 112 V+
FLAG 1056 112 V-
FLAG 928 192 0
FLAG 1056 192 0
FLAG -1616 192 0
FLAG -1104 144 0
FLAG -1616 0 in
FLAG -1008 16 V-
FLAG -1008 -48 V+
FLAG -368 -64 V+
FLAG -368 0 V-
SYMBOL res 368 -16 R90
WINDOW 0 0 56 VBottom 2
WINDOW 3 32 56 VTop 2
SYMATTR InstName R1
SYMATTR Value 18K
SYMBOL cap 464 0 R0
WINDOW 3 21 55 Left 2
SYMATTR Value 1n
SYMATTR InstName C1
SYMBOL Opamps\\UniversalOpamp2 576 -16 R0
SYMATTR InstName U1
SYMBOL voltage 928 96 R0
WINDOW 123 0 0 Left 2
WINDOW 39 0 0 Left 2
SYMATTR InstName V2
SYMATTR Value 5
SYMBOL voltage 1056 208 R180
WINDOW 0 24 96 Left 2
WINDOW 3 24 16 Left 2
WINDOW 123 0 0 Left 2
WINDOW 39 0 0 Left 2
SYMATTR InstName V3
SYMATTR Value 5
SYMBOL cap 352 -64 R0
SYMATTR InstName C2
SYMATTR Value 82n
SYMBOL res 384 -16 M90
WINDOW 0 0 56 VBottom 2
WINDOW 3 32 56 VTop 2
SYMATTR InstName R2
SYMATTR Value 9.1K
SYMBOL voltage -1616 96 R0
WINDOW 123 24 124 Left 2
WINDOW 39 0 0 Left 2
SYMATTR Value2 AC 1
SYMATTR InstName V4
SYMATTR Value SINE(0 1 1k 0 0 0 10)
SYMBOL res -1216 -16 R90
WINDOW 0 0 56 VBottom 2
WINDOW 3 32 56 VTop 2
SYMATTR InstName R3
SYMATTR Value 300k
SYMBOL cap -1120 0 R0
WINDOW 3 21 55 Left 2
SYMATTR Value 10p
SYMATTR InstName C3
SYMBOL Opamps\\UniversalOpamp2 -1008 -16 R0
SYMATTR InstName U2
SYMBOL cap -1232 -64 R0
SYMATTR InstName C4
SYMATTR Value 5600p
SYMBOL res -1200 -16 M90
WINDOW 0 0 56 VBottom 2
WINDOW 3 32 56 VTop 2
SYMATTR InstName R4
SYMATTR Value 150k
SYMBOL Opamps\\UniversalOpamp2 -368 -32 R0
SYMATTR InstName U3
TEXT -32 -256 Left 1 ;Sistemas de Adquisición y Procesamiento de señales\nBioingeniería - FIUNER
TEXT -32 -288 Left 4 ;Respuesta en Frecuencia
TEXT -1616 -168 Left 2 !.ac dec 100 1 1meg
